*Heading
** Job name: segment1 Model name: Model-1
** Generated by: Abaqus/CAE 2021
*Preprint, echo=NO, model=NO, history=NO, contact=NO
**
*Parameter
** 
** final magnitude of the applied magnetic field (Tesla)
magFieldMag = 0.040
**
** applied magnetic field unit vector
magFieldVecX = 0.0
magFieldVecY = 0.866 
magFieldVecZ = -0.5
**
**	MATERIAL PARAMETERS 
**
** initial magnetic moment density (A/m)
Mx = 0.0
My = 0.0
Mz = 640.0e3*0.2
**
** initial shear modulus (Pa)
Gshear = 850e3
**
** bulk modulus (Pa)
Kbulk = 1000.0*Gshear
**
** number of body integration points
nInt = 8
**
** number of real material properties
nProps = 5
**
** number of integer material properties
nJProps = 1
**
**
*Node, nset=Nall
      1,  0.075000003,           0.,          30.
      2,  0.075000003,           0.,          20.
      3,  0.075000003,           0.,           0.
      4,  0.075000003,           0.,          45.
      5,          0.5,           0.,          30.
      6,          0.5,           0.,          45.
      7,          0.5,           0.,          20.
      8, 0.0530330092, -0.0530330092,          30.
      9,           0., -0.075000003,          30.
     10, -0.0530330092, -0.0530330092,          30.
     11, -0.075000003,           0.,          30.
     12, -0.0530330092, 0.0530330092,          30.
     13,           0.,  0.075000003,          30.
     14, 0.0530330092, 0.0530330092,          30.
     15, 0.0530330092, -0.0530330092,          20.
     16,           0., -0.075000003,          20.
     17, -0.0530330092, -0.0530330092,          20.
     18, -0.075000003,           0.,          20.
     19, -0.0530330092, 0.0530330092,          20.
     20,           0.,  0.075000003,          20.
** ... 18809 like lines cut
*User Element,Nodes=8,Type=U3,Iproperties=<nJProps>,Properties=<nProps>,Coordinates=3,unsymm
1,2,3
*Element, type=U3, elset=mag
 857,   99,    1,   14,   13, 6932, 1799, 1806, 1805
 858,   99,    9,    8,    1, 6932, 1801, 1800, 1799
 859,   99,   13,   12,   11, 6932, 1805, 1804, 1803
 860,   99,   11,   10,    9, 6932, 1803, 1802, 1801
 861, 6932, 1799, 1806, 1805, 6933, 1807, 1814, 1813
 862, 6932, 1801, 1800, 1799, 6933, 1809, 1808, 1807
 863, 6932, 1805, 1804, 1803, 6933, 1813, 1812, 1811
 864, 6932, 1803, 1802, 1801, 6933, 1811, 1810, 1809
 865, 6933, 1807, 1814, 1813, 6934, 1815, 1822, 1821
 866, 6933, 1809, 1808, 1807, 6934, 1817, 1816, 1815
 867, 6933, 1813, 1812, 1811, 6934, 1821, 1820, 1819
 868, 6933, 1811, 1810, 1809, 6934, 1819, 1818, 1817
 869, 6934, 1815, 1822, 1821, 6935, 1823, 1830, 1829
 870, 6934, 1817, 1816, 1815, 6935, 1825, 1824, 1823
 871, 6934, 1821, 1820, 1819, 6935, 1829, 1828, 1827
 872, 6934, 1819, 1818, 1817, 6935, 1827, 1826, 1825
 873, 6935, 1823, 1830, 1829, 6936, 1831, 1838, 1837
 874, 6935, 1825, 1824, 1823, 6936, 1833, 1832, 1831
 875, 6935, 1829, 1828, 1827, 6936, 1837, 1836, 1835
 876, 6935, 1827, 1826, 1825, 6936, 1835, 1834, 1833
** ... 15004 like lines cut
*Element, type=C3D8R, elset=ElDummy
100857,99,1,14,13,6932,1799,1806,1805
100858,99,9,8,1,6932,1801,1800,1799
100859,99,13,12,11,6932,1805,1804,1803
100860,99,11,10,9,6932,1803,1802,1801
100861,6932,1799,1806,1805,6933,1807,1814,1813
100862,6932,1801,1800,1799,6933,1809,1808,1807
100863,6932,1805,1804,1803,6933,1813,1812,1811
100864,6932,1803,1802,1801,6933,1811,1810,1809
100865,6933,1807,1814,1813,6934,1815,1822,1821
100866,6933,1809,1808,1807,6934,1817,1816,1815
100867,6933,1813,1812,1811,6934,1821,1820,1819
100868,6933,1811,1810,1809,6934,1819,1818,1817
100869,6934,1815,1822,1821,6935,1823,1830,1829
100870,6934,1817,1816,1815,6935,1825,1824,1823
100871,6934,1821,1820,1819,6935,1829,1828,1827
100872,6934,1819,1818,1817,6935,1827,1826,1825
100873,6935,1823,1830,1829,6936,1831,1838,1837
100874,6935,1825,1824,1823,6936,1833,1832,1831
100875,6935,1829,1828,1827,6936,1837,1836,1835
100876,6935,1827,1826,1825,6936,1835,1834,1833
** ... 15004 like lines cut
*Element, type=C3D8R, elset=metal
  1, 6720,  101,  108,  107,   99,    1,   14,   13
  2, 6720,  103,  102,  101,   99,    9,    8,    1
  3, 6720,  107,  106,  105,   99,   13,   12,   11
  4, 6720,  105,  104,  103,   99,   11,   10,    9
  5, 6721,  109,  116,  115, 6720,  101,  108,  107
  6, 6721,  111,  110,  109, 6720,  103,  102,  101
  7, 6721,  115,  114,  113, 6720,  107,  106,  105
  8, 6721,  113,  112,  111, 6720,  105,  104,  103
  9, 6722,  117,  124,  123, 6721,  109,  116,  115
 10, 6722,  119,  118,  117, 6721,  111,  110,  109
 11, 6722,  123,  122,  121, 6721,  115,  114,  113
 12, 6722,  121,  120,  119, 6721,  113,  112,  111
 13, 6723,  125,  132,  131, 6722,  117,  124,  123
 14, 6723,  127,  126,  125, 6722,  119,  118,  117
 15, 6723,  131,  130,  129, 6722,  123,  122,  121
 16, 6723,  129,  128,  127, 6722,  121,  120,  119
 17, 6724,  133,  140,  139, 6723,  125,  132,  131
 18, 6724,  135,  134,  133, 6723,  127,  126,  125
 19, 6724,  139,  138,  137, 6723,  131,  130,  129
 20, 6724,  137,  136,  135, 6723,  129,  128,  127
** ... 836 like lines cut
*Nset, nset=mag-node
     1,     2,     4,     5,     6,     7,     8,     9,    10,    11,    12,    13,    14,    15,    16,    17
    18,    19,    20,    21,    29,    30,    31,    32,    33,    34,    35,    36,    37,    38,    39,    40
    41,    42,    43,    44,    45,    46,    47,    48,    49,    50,    51,    52,    53,    54,    55,    56
    57,    58,    59,    60,    61,    62,    63,    64,    65,    66,    67,    68,    69,    70,    71,    72
    73,    74,    75,    76,    77,    78,    79,    80,    81,    82,    83,    84,    85,    86,    87,    88
    89,    90,    91,    92,    93,    94,    95,    96,    97,    98,    99,   101,   102,   103,   104,   105
   106,   107,   108,   109,   110,   111,   112,   113,   114,   115,   116,   117,   118,   119,   120,   121
   122,   123,   124,   125,   126,   127,   128,   129,   130,   131,   132,   133,   134,   135,   136,   137
   138,   139,   140,   141,   142,   143,   144,   145,   146,   147,   148,   149,   150,   151,   152,   153
   154,   155,   156,   157,   158,   159,   160,   161,   162,   163,   164,   165,   166,   167,   168,   169
   170,   171,   172,   173,   174,   175,   176,   177,   178,   179,   180,   181,   182,   183,   184,   185
   186,   187,   188,   189,   190,   191,   192,   193,   194,   195,   196,   197,   198,   199,   200,   201
   202,   203,   204,   205,   206,   207,   208,   209,   210,   211,   212,   213,   214,   215,   216,   217
   218,   219,   220,   221,   222,   223,   224,   225,   226,   227,   228,   229,   230,   231,   232,   233
   234,   235,   236,   237,   238,   239,   240,   241,   242,   243,   244,   245,   246,   247,   248,   249
   250,   251,   252,   253,   254,   255,   256,   257,   258,   259,   260,   261,   262,   263,   264,   265
   266,   267,   268,   269,   270,   271,   272,   273,   274,   275,   276,   277,   278,   279,   280,   281
   282,   283,   284,   285,   286,   287,   288,   289,   290,   291,   292,   293,   294,   295,   296,   297
   298,   299,   300,   301,   302,   303,   304,   305,   306,   307,   308,   309,   310,   311,   312,   313
   314,   315,   316,   317,   318,   319,   320,   321,   322,   323,   324,   325,   326,   327,   328,   329
** ... 1072 like lines cut
*Nset, nset=BC
   3,  22,  23,  24,  25,  26,  27,  28, 661
*Solid section, elset=ElDummy, material=Dummy, controls=sec_con
*Solid section, elset=metal, material=metal
**
**  
**
** 
** MATERIALS
*Section controls, hourglass=enhanced, name=sec_con
*Material, name=metal
*Elastic
140e9, 0.3
*Material, name=Dummy
*Elastic
1.e-20
*Conductivity
1.0
*Density
1
** 
** ----------------------------------------------------------------
** 
************************************************************************
**			MATERIAL DEFINITION
************************************************************************
**
** Material properties for the real material
**
*uel property,elset=mag
<Gshear>,<Kbulk>,<Mx>,<My>,<Mz>,<nInt>
************************************************************************
**			INITIAL CONDITIONS
************************************************************************
*Initial conditions, type=field, variable=1
mag-node,0
*Initial conditions, type=field, variable=2
mag-node,0
*Initial conditions, type=field, variable=3
mag-node,0
*Initial conditions, type=field, variable=4
mag-node,0
**
************************************************************************
**			STEP DEFINITION
************************************************************************
** STEP: Step-1
** 
*Step, name=Step-1, nlgeom=YES, inc=100000
*Static,stabilize, factor=0.0002
0.001,1.,1.e-8,0.01
*CONTROLS, PARAMETERS=LINE SEARCH
10,1.0,0.0001,0.25,0.10
** 
** BOUNDARY CONDITIONS
** 
*Boundary
BC, Encastre
** 
** ----------------------------------------------------------------
** 
*Field, variable=1
mag-node,<magFieldVecX>
*Field, variable=2
mag-node,<magFieldVecY>
*Field, variable=3
mag-node,<magFieldVecZ>
*Field, variable=4
mag-node,<magFieldMag>
**
**
*Output, field
*node output, nset=Nall
u
*element output, elset=ElDummy
le,ne
**
*End Step